OPT_V10/Two_days_MYC3/powerflow_results_t3.txt
Pandapower Network Debug Info
==================================================

BUS:
       vm_pu  va_degree      p_mw    q_mvar
0   0.992581   0.122957  0.001090  0.001030
1   0.988070   0.214802  0.001629  0.002126
2   0.984185   0.310820  0.001754  0.003169
3   0.988464   0.189005  0.002968  0.004008
4   0.999882   0.000824  0.011427  0.011201
5   0.999869   0.000879  0.010537  0.007431
6   0.999859   0.000979  0.011543  0.012559
7   0.999927   0.000600  0.000000  0.000000
8   0.999927   0.000606  0.000000  0.000000
9   1.000000   0.000000 -0.041106 -0.046632
10  1.000000   0.000006  0.000000  0.000000
--------------------------------------------------

LINE:
   p_from_mw  q_from_mvar   p_to_mw  q_to_mvar         pl_mw       ql_mvar  i_from_ka   i_to_ka      i_ka  vm_from_pu  va_from_degree  vm_to_pu  va_to_degree  loading_percent
0   0.041096     0.042632 -0.041093  -0.042629  3.429678e-06  2.674177e-06   0.002279  0.002279  0.002279    1.000000        0.000006  0.999927      0.000600         0.990941
1   0.033510     0.031193 -0.033508  -0.031192  1.620971e-06  1.263898e-06   0.001762  0.001762  0.001762    0.999927        0.000600  0.999882      0.000824         0.766194
2   0.007573     0.010436 -0.007495  -0.010375  7.777465e-05  6.064217e-05   0.018613  0.018613  0.018613    0.999927        0.000606  0.992581      0.122957         8.092400
3  -0.022080    -0.019990  0.022081   0.019990  3.068774e-07  2.392774e-07   0.001147  0.001147  0.001147    0.999869        0.000879  0.999882      0.000824         0.498513
4  -0.011543    -0.012559  0.011544   0.012559  1.423483e-07  1.109913e-07   0.000657  0.000657  0.000657    0.999859        0.000979  0.999869      0.000879         0.285504
5  -0.003396    -0.005305  0.003420   0.005324  2.404070e-05  1.874493e-05   0.009201  0.009201  0.009201    0.988070        0.214802  0.992581      0.122957         4.000386
6  -0.002968    -0.004008  0.002985   0.004022  1.700017e-05  1.325531e-05   0.007283  0.007283  0.007283    0.988464        0.189005  0.992581      0.122957         3.166595
7  -0.001754    -0.003169  0.001766   0.003179  1.225361e-05  9.554345e-06   0.005312  0.005312  0.005312    0.984185        0.310820  0.988070      0.214802         2.309707
--------------------------------------------------

TRAFO:
    p_hv_mw  q_hv_mvar   p_lv_mw  q_lv_mvar    pl_mw  ql_mvar   i_hv_ka   i_lv_ka  vm_hv_pu  va_hv_degree  vm_lv_pu  va_lv_degree  loading_percent
0  0.007583   0.011436 -0.007573  -0.010436  0.00001    0.001  0.000528  0.018613  0.999927        0.0006  0.999927      0.000606         0.137225
1  0.041106   0.046632 -0.041096  -0.042632  0.00001    0.004  0.000513  0.002279  1.000000        0.0000  1.000000      0.000006         0.155407
--------------------------------------------------
